<routes>
    <vType id="typeAB" accel="0.8" decel="4.5" sigma="0.5" length="5" minGap="2.5" maxSpeed="16.67" guiShape="passenger"/>

    <route id="AB" edges="17355127 17362933#0 -17357053" />
    <route id="AC" edges="17355127 17362933#0 17362933#1 159509942" />
    <route id="BC" edges="17357053 17362933#1 159509942" />
    <route id="BA" edges="17357053 17362933#1 17362933#2 17362933#3 -17355127" />
    <route id="CA" edges="159509935 17362933#3 -17355127" />
    <route id="CB" edges="159509935 17362933#3 17362933#0 -17357053" />
    <vehicle id="CA_0" type="typeAB" route="CA" depart="4" />
    <vehicle id="AB_1" type="typeAB" route="AB" depart="9" color="1,0,0" />
    <vehicle id="CA_2" type="typeAB" route="CA" depart="10" />
    <vehicle id="CB_3" type="typeAB" route="CB" depart="10" />
    <vehicle id="CA_4" type="typeAB" route="CA" depart="14" />
    <vehicle id="AB_5" type="typeAB" route="AB" depart="17" color="1,0,0" />
    <vehicle id="AB_6" type="typeAB" route="AB" depart="21" color="1,0,0" />
    <vehicle id="BA_7" type="typeAB" route="BA" depart="23" />
    <vehicle id="AB_8" type="typeAB" route="AB" depart="32" color="1,0,0" />
    <vehicle id="AC_9" type="typeAB" route="AC" depart="35" color="0,1,0" />
    <vehicle id="AC_10" type="typeAB" route="AC" depart="37" color="0,1,0" />
    <vehicle id="CA_11" type="typeAB" route="CA" depart="42" />
    <vehicle id="AB_12" type="typeAB" route="AB" depart="48" color="1,0,0" />
    <vehicle id="CB_13" type="typeAB" route="CB" depart="49" />
    <vehicle id="BA_14" type="typeAB" route="BA" depart="56" />
    <vehicle id="AB_15" type="typeAB" route="AB" depart="62" color="1,0,0" />
    <vehicle id="CA_16" type="typeAB" route="CA" depart="62" />
    <vehicle id="AC_17" type="typeAB" route="AC" depart="65" color="0,1,0" />
    <vehicle id="AC_18" type="typeAB" route="AC" depart="70" color="0,1,0" />
    <vehicle id="AC_19" type="typeAB" route="AC" depart="72" color="0,1,0" />
    <vehicle id="AB_20" type="typeAB" route="AB" depart="75" color="1,0,0" />
    <vehicle id="AB_21" type="typeAB" route="AB" depart="80" color="1,0,0" />
    <vehicle id="BA_22" type="typeAB" route="BA" depart="80" />
    <vehicle id="BA_23" type="typeAB" route="BA" depart="87" />
    <vehicle id="AB_24" type="typeAB" route="AB" depart="88" color="1,0,0" />
    <vehicle id="BC_25" type="typeAB" route="BC" depart="88" />
    <vehicle id="BC_26" type="typeAB" route="BC" depart="89" />
    <vehicle id="BC_27" type="typeAB" route="BC" depart="90" />
    <vehicle id="AB_28" type="typeAB" route="AB" depart="93" color="1,0,0" />
    <vehicle id="BC_29" type="typeAB" route="BC" depart="95" />
    <vehicle id="CA_30" type="typeAB" route="CA" depart="100" />
    <vehicle id="AB_31" type="typeAB" route="AB" depart="101" color="1,0,0" />
    <vehicle id="AC_32" type="typeAB" route="AC" depart="107" color="0,1,0" />
    <vehicle id="AC_33" type="typeAB" route="AC" depart="112" color="0,1,0" />
    <vehicle id="BC_34" type="typeAB" route="BC" depart="112" />
    <vehicle id="AB_35" type="typeAB" route="AB" depart="113" color="1,0,0" />
    <vehicle id="BA_36" type="typeAB" route="BA" depart="117" />
    <vehicle id="BA_37" type="typeAB" route="BA" depart="121" />
    <vehicle id="AB_38" type="typeAB" route="AB" depart="128" color="1,0,0" />
    <vehicle id="BA_39" type="typeAB" route="BA" depart="129" />
    <vehicle id="CA_40" type="typeAB" route="CA" depart="132" />
    <vehicle id="AB_41" type="typeAB" route="AB" depart="149" color="1,0,0" />
    <vehicle id="AC_42" type="typeAB" route="AC" depart="150" color="0,1,0" />
    <vehicle id="AB_43" type="typeAB" route="AB" depart="153" color="1,0,0" />
    <vehicle id="BC_44" type="typeAB" route="BC" depart="153" />
    <vehicle id="AB_45" type="typeAB" route="AB" depart="156" color="1,0,0" />
    <vehicle id="AC_46" type="typeAB" route="AC" depart="156" color="0,1,0" />
    <vehicle id="AB_47" type="typeAB" route="AB" depart="159" color="1,0,0" />
    <vehicle id="BC_48" type="typeAB" route="BC" depart="159" />
    <vehicle id="AB_49" type="typeAB" route="AB" depart="162" color="1,0,0" />
    <vehicle id="AB_50" type="typeAB" route="AB" depart="163" color="1,0,0" />
    <vehicle id="AB_51" type="typeAB" route="AB" depart="164" color="1,0,0" />
    <vehicle id="CB_52" type="typeAB" route="CB" depart="165" />
    <vehicle id="AB_53" type="typeAB" route="AB" depart="166" color="1,0,0" />
    <vehicle id="CA_54" type="typeAB" route="CA" depart="168" />
    <vehicle id="AB_55" type="typeAB" route="AB" depart="179" color="1,0,0" />
    <vehicle id="BC_56" type="typeAB" route="BC" depart="179" />
    <vehicle id="BC_57" type="typeAB" route="BC" depart="182" />
    <vehicle id="AC_58" type="typeAB" route="AC" depart="190" color="0,1,0" />
    <vehicle id="BA_59" type="typeAB" route="BA" depart="193" />
    <vehicle id="AB_60" type="typeAB" route="AB" depart="196" color="1,0,0" />
    <vehicle id="BA_61" type="typeAB" route="BA" depart="197" />
    <vehicle id="AC_62" type="typeAB" route="AC" depart="198" color="0,1,0" />
    <vehicle id="BC_63" type="typeAB" route="BC" depart="200" />
    <vehicle id="AB_64" type="typeAB" route="AB" depart="201" color="1,0,0" />
    <vehicle id="AB_65" type="typeAB" route="AB" depart="206" color="1,0,0" />
    <vehicle id="CA_66" type="typeAB" route="CA" depart="207" />
    <vehicle id="AC_67" type="typeAB" route="AC" depart="210" color="0,1,0" />
    <vehicle id="BA_68" type="typeAB" route="BA" depart="210" />
    <vehicle id="BC_69" type="typeAB" route="BC" depart="215" />
    <vehicle id="BA_70" type="typeAB" route="BA" depart="216" />
    <vehicle id="BC_71" type="typeAB" route="BC" depart="218" />
    <vehicle id="BA_72" type="typeAB" route="BA" depart="221" />
    <vehicle id="BC_73" type="typeAB" route="BC" depart="226" />
    <vehicle id="AB_74" type="typeAB" route="AB" depart="227" color="1,0,0" />
    <vehicle id="BA_75" type="typeAB" route="BA" depart="227" />
    <vehicle id="AC_76" type="typeAB" route="AC" depart="228" color="0,1,0" />
    <vehicle id="CA_77" type="typeAB" route="CA" depart="236" />
    <vehicle id="CA_78" type="typeAB" route="CA" depart="242" />
    <vehicle id="AB_79" type="typeAB" route="AB" depart="248" color="1,0,0" />
    <vehicle id="AC_80" type="typeAB" route="AC" depart="248" color="0,1,0" />
    <vehicle id="AB_81" type="typeAB" route="AB" depart="249" color="1,0,0" />
    <vehicle id="AC_82" type="typeAB" route="AC" depart="255" color="0,1,0" />
    <vehicle id="AB_83" type="typeAB" route="AB" depart="259" color="1,0,0" />
    <vehicle id="AB_84" type="typeAB" route="AB" depart="260" color="1,0,0" />
    <vehicle id="AB_85" type="typeAB" route="AB" depart="263" color="1,0,0" />
    <vehicle id="BA_86" type="typeAB" route="BA" depart="270" />
    <vehicle id="BC_87" type="typeAB" route="BC" depart="271" />
    <vehicle id="AC_88" type="typeAB" route="AC" depart="276" color="0,1,0" />
    <vehicle id="BC_89" type="typeAB" route="BC" depart="277" />
    <vehicle id="AC_90" type="typeAB" route="AC" depart="281" color="0,1,0" />
    <vehicle id="AB_91" type="typeAB" route="AB" depart="289" color="1,0,0" />
    <vehicle id="CB_92" type="typeAB" route="CB" depart="289" />
    <vehicle id="CA_93" type="typeAB" route="CA" depart="290" />
    <vehicle id="AB_94" type="typeAB" route="AB" depart="291" color="1,0,0" />
    <vehicle id="BC_95" type="typeAB" route="BC" depart="291" />
    <vehicle id="BA_96" type="typeAB" route="BA" depart="293" />
    <vehicle id="CA_97" type="typeAB" route="CA" depart="301" />
    <vehicle id="CB_98" type="typeAB" route="CB" depart="301" />
    <vehicle id="AC_99" type="typeAB" route="AC" depart="303" color="0,1,0" />
    <vehicle id="CA_100" type="typeAB" route="CA" depart="305" />
    <vehicle id="CA_101" type="typeAB" route="CA" depart="306" />
    <vehicle id="CB_102" type="typeAB" route="CB" depart="313" />
    <vehicle id="AC_103" type="typeAB" route="AC" depart="319" color="0,1,0" />
    <vehicle id="AB_104" type="typeAB" route="AB" depart="322" color="1,0,0" />
    <vehicle id="AB_105" type="typeAB" route="AB" depart="325" color="1,0,0" />
    <vehicle id="CA_106" type="typeAB" route="CA" depart="325" />
    <vehicle id="AC_107" type="typeAB" route="AC" depart="328" color="0,1,0" />
    <vehicle id="BA_108" type="typeAB" route="BA" depart="328" />
    <vehicle id="CA_109" type="typeAB" route="CA" depart="328" />
    <vehicle id="BA_110" type="typeAB" route="BA" depart="330" />
    <vehicle id="CB_111" type="typeAB" route="CB" depart="337" />
    <vehicle id="AC_112" type="typeAB" route="AC" depart="344" color="0,1,0" />
    <vehicle id="BA_113" type="typeAB" route="BA" depart="344" />
    <vehicle id="CA_114" type="typeAB" route="CA" depart="347" />
    <vehicle id="AB_115" type="typeAB" route="AB" depart="348" color="1,0,0" />
    <vehicle id="BA_116" type="typeAB" route="BA" depart="348" />
    <vehicle id="CB_117" type="typeAB" route="CB" depart="348" />
    <vehicle id="AB_118" type="typeAB" route="AB" depart="351" color="1,0,0" />
    <vehicle id="AB_119" type="typeAB" route="AB" depart="354" color="1,0,0" />
    <vehicle id="AC_120" type="typeAB" route="AC" depart="359" color="0,1,0" />
    <vehicle id="AC_121" type="typeAB" route="AC" depart="362" color="0,1,0" />
    <vehicle id="AC_122" type="typeAB" route="AC" depart="376" color="0,1,0" />
    <vehicle id="CA_123" type="typeAB" route="CA" depart="378" />
    <vehicle id="AB_124" type="typeAB" route="AB" depart="383" color="1,0,0" />
    <vehicle id="AB_125" type="typeAB" route="AB" depart="389" color="1,0,0" />
    <vehicle id="BC_126" type="typeAB" route="BC" depart="391" />
    <vehicle id="AC_127" type="typeAB" route="AC" depart="392" color="0,1,0" />
    <vehicle id="AB_128" type="typeAB" route="AB" depart="397" color="1,0,0" />
    <vehicle id="BA_129" type="typeAB" route="BA" depart="400" />
    <vehicle id="BC_130" type="typeAB" route="BC" depart="412" />
    <vehicle id="BC_131" type="typeAB" route="BC" depart="414" />
    <vehicle id="CB_132" type="typeAB" route="CB" depart="414" />
    <vehicle id="BC_133" type="typeAB" route="BC" depart="420" />
    <vehicle id="AC_134" type="typeAB" route="AC" depart="424" color="0,1,0" />
    <vehicle id="CA_135" type="typeAB" route="CA" depart="426" />
    <vehicle id="AB_136" type="typeAB" route="AB" depart="429" color="1,0,0" />
    <vehicle id="AB_137" type="typeAB" route="AB" depart="436" color="1,0,0" />
    <vehicle id="BC_138" type="typeAB" route="BC" depart="437" />
    <vehicle id="CA_139" type="typeAB" route="CA" depart="446" />
    <vehicle id="AB_140" type="typeAB" route="AB" depart="451" color="1,0,0" />
    <vehicle id="BA_141" type="typeAB" route="BA" depart="455" />
    <vehicle id="AC_142" type="typeAB" route="AC" depart="458" color="0,1,0" />
    <vehicle id="BC_143" type="typeAB" route="BC" depart="460" />
    <vehicle id="BA_144" type="typeAB" route="BA" depart="465" />
    <vehicle id="AB_145" type="typeAB" route="AB" depart="467" color="1,0,0" />
    <vehicle id="BC_146" type="typeAB" route="BC" depart="467" />
    <vehicle id="AB_147" type="typeAB" route="AB" depart="469" color="1,0,0" />
    <vehicle id="AC_148" type="typeAB" route="AC" depart="475" color="0,1,0" />
    <vehicle id="AB_149" type="typeAB" route="AB" depart="476" color="1,0,0" />
    <vehicle id="AC_150" type="typeAB" route="AC" depart="476" color="0,1,0" />
    <vehicle id="AB_151" type="typeAB" route="AB" depart="477" color="1,0,0" />
    <vehicle id="BC_152" type="typeAB" route="BC" depart="482" />
    <vehicle id="AB_153" type="typeAB" route="AB" depart="483" color="1,0,0" />
    <vehicle id="AC_154" type="typeAB" route="AC" depart="484" color="0,1,0" />
    <vehicle id="BC_155" type="typeAB" route="BC" depart="484" />
    <vehicle id="AC_156" type="typeAB" route="AC" depart="486" color="0,1,0" />
    <vehicle id="AB_157" type="typeAB" route="AB" depart="488" color="1,0,0" />
    <vehicle id="BA_158" type="typeAB" route="BA" depart="497" />
    <vehicle id="CB_159" type="typeAB" route="CB" depart="498" />
    <vehicle id="AB_160" type="typeAB" route="AB" depart="499" color="1,0,0" />
    <vehicle id="AB_161" type="typeAB" route="AB" depart="512" color="1,0,0" />
    <vehicle id="AC_162" type="typeAB" route="AC" depart="517" color="0,1,0" />
    <vehicle id="AB_163" type="typeAB" route="AB" depart="522" color="1,0,0" />
    <vehicle id="AC_164" type="typeAB" route="AC" depart="524" color="0,1,0" />
    <vehicle id="BA_165" type="typeAB" route="BA" depart="524" />
    <vehicle id="BC_166" type="typeAB" route="BC" depart="527" />
    <vehicle id="CA_167" type="typeAB" route="CA" depart="554" />
    <vehicle id="BC_168" type="typeAB" route="BC" depart="556" />
    <vehicle id="AB_169" type="typeAB" route="AB" depart="560" color="1,0,0" />
    <vehicle id="BA_170" type="typeAB" route="BA" depart="561" />
    <vehicle id="BC_171" type="typeAB" route="BC" depart="562" />
    <vehicle id="BA_172" type="typeAB" route="BA" depart="565" />
    <vehicle id="BC_173" type="typeAB" route="BC" depart="567" />
    <vehicle id="BA_174" type="typeAB" route="BA" depart="573" />
    <vehicle id="AB_175" type="typeAB" route="AB" depart="574" color="1,0,0" />
    <vehicle id="AC_176" type="typeAB" route="AC" depart="574" color="0,1,0" />
    <vehicle id="AC_177" type="typeAB" route="AC" depart="576" color="0,1,0" />
    <vehicle id="AC_178" type="typeAB" route="AC" depart="585" color="0,1,0" />
    <vehicle id="CA_179" type="typeAB" route="CA" depart="586" />
    <vehicle id="CB_180" type="typeAB" route="CB" depart="586" />
    <vehicle id="BA_181" type="typeAB" route="BA" depart="587" />
    <vehicle id="AC_182" type="typeAB" route="AC" depart="590" color="0,1,0" />
    <vehicle id="AB_183" type="typeAB" route="AB" depart="591" color="1,0,0" />
    <vehicle id="BA_184" type="typeAB" route="BA" depart="597" />
    <vehicle id="AB_185" type="typeAB" route="AB" depart="599" color="1,0,0" />
    <vehicle id="BA_186" type="typeAB" route="BA" depart="599" />
    <vehicle id="AC_187" type="typeAB" route="AC" depart="602" color="0,1,0" />
    <vehicle id="BC_188" type="typeAB" route="BC" depart="609" />
    <vehicle id="CA_189" type="typeAB" route="CA" depart="611" />
    <vehicle id="AC_190" type="typeAB" route="AC" depart="613" color="0,1,0" />
    <vehicle id="AB_191" type="typeAB" route="AB" depart="615" color="1,0,0" />
    <vehicle id="BA_192" type="typeAB" route="BA" depart="617" />
    <vehicle id="AB_193" type="typeAB" route="AB" depart="620" color="1,0,0" />
    <vehicle id="AC_194" type="typeAB" route="AC" depart="620" color="0,1,0" />
    <vehicle id="AB_195" type="typeAB" route="AB" depart="622" color="1,0,0" />
    <vehicle id="BA_196" type="typeAB" route="BA" depart="626" />
    <vehicle id="AB_197" type="typeAB" route="AB" depart="628" color="1,0,0" />
    <vehicle id="BA_198" type="typeAB" route="BA" depart="628" />
    <vehicle id="AB_199" type="typeAB" route="AB" depart="633" color="1,0,0" />
    <vehicle id="AB_200" type="typeAB" route="AB" depart="638" color="1,0,0" />
    <vehicle id="CA_201" type="typeAB" route="CA" depart="642" />
    <vehicle id="AB_202" type="typeAB" route="AB" depart="643" color="1,0,0" />
    <vehicle id="CB_203" type="typeAB" route="CB" depart="646" />
    <vehicle id="AB_204" type="typeAB" route="AB" depart="647" color="1,0,0" />
    <vehicle id="AC_205" type="typeAB" route="AC" depart="647" color="0,1,0" />
    <vehicle id="BC_206" type="typeAB" route="BC" depart="650" />
    <vehicle id="AB_207" type="typeAB" route="AB" depart="656" color="1,0,0" />
    <vehicle id="BC_208" type="typeAB" route="BC" depart="656" />
    <vehicle id="BA_209" type="typeAB" route="BA" depart="658" />
    <vehicle id="BC_210" type="typeAB" route="BC" depart="662" />
    <vehicle id="AB_211" type="typeAB" route="AB" depart="667" color="1,0,0" />
    <vehicle id="CB_212" type="typeAB" route="CB" depart="669" />
    <vehicle id="AC_213" type="typeAB" route="AC" depart="679" color="0,1,0" />
    <vehicle id="BC_214" type="typeAB" route="BC" depart="685" />
    <vehicle id="AB_215" type="typeAB" route="AB" depart="692" color="1,0,0" />
    <vehicle id="CA_216" type="typeAB" route="CA" depart="694" />
    <vehicle id="CB_217" type="typeAB" route="CB" depart="695" />
    <vehicle id="BA_218" type="typeAB" route="BA" depart="698" />
    <vehicle id="CB_219" type="typeAB" route="CB" depart="701" />
    <vehicle id="BC_220" type="typeAB" route="BC" depart="704" />
    <vehicle id="BA_221" type="typeAB" route="BA" depart="711" />
    <vehicle id="AC_222" type="typeAB" route="AC" depart="716" color="0,1,0" />
    <vehicle id="AB_223" type="typeAB" route="AB" depart="719" color="1,0,0" />
    <vehicle id="AB_224" type="typeAB" route="AB" depart="735" color="1,0,0" />
    <vehicle id="AB_225" type="typeAB" route="AB" depart="738" color="1,0,0" />
    <vehicle id="CA_226" type="typeAB" route="CA" depart="741" />
    <vehicle id="BA_227" type="typeAB" route="BA" depart="744" />
    <vehicle id="CA_228" type="typeAB" route="CA" depart="744" />
    <vehicle id="CA_229" type="typeAB" route="CA" depart="745" />
    <vehicle id="AB_230" type="typeAB" route="AB" depart="747" color="1,0,0" />
    <vehicle id="AB_231" type="typeAB" route="AB" depart="750" color="1,0,0" />
    <vehicle id="CA_232" type="typeAB" route="CA" depart="753" />
    <vehicle id="CB_233" type="typeAB" route="CB" depart="753" />
    <vehicle id="AC_234" type="typeAB" route="AC" depart="755" color="0,1,0" />
    <vehicle id="AB_235" type="typeAB" route="AB" depart="758" color="1,0,0" />
    <vehicle id="BA_236" type="typeAB" route="BA" depart="759" />
    <vehicle id="AC_237" type="typeAB" route="AC" depart="766" color="0,1,0" />
    <vehicle id="AC_238" type="typeAB" route="AC" depart="775" color="0,1,0" />
    <vehicle id="AC_239" type="typeAB" route="AC" depart="777" color="0,1,0" />
    <vehicle id="AB_240" type="typeAB" route="AB" depart="778" color="1,0,0" />
    <vehicle id="BC_241" type="typeAB" route="BC" depart="788" />
    <vehicle id="CA_242" type="typeAB" route="CA" depart="790" />
    <vehicle id="CB_243" type="typeAB" route="CB" depart="793" />
    <vehicle id="AB_244" type="typeAB" route="AB" depart="795" color="1,0,0" />
    <vehicle id="AB_245" type="typeAB" route="AB" depart="800" color="1,0,0" />
    <vehicle id="CA_246" type="typeAB" route="CA" depart="800" />
    <vehicle id="AC_247" type="typeAB" route="AC" depart="803" color="0,1,0" />
    <vehicle id="AB_248" type="typeAB" route="AB" depart="810" color="1,0,0" />
    <vehicle id="BA_249" type="typeAB" route="BA" depart="810" />
    <vehicle id="CB_250" type="typeAB" route="CB" depart="811" />
    <vehicle id="AB_251" type="typeAB" route="AB" depart="812" color="1,0,0" />
    <vehicle id="BA_252" type="typeAB" route="BA" depart="813" />
    <vehicle id="BC_253" type="typeAB" route="BC" depart="813" />
    <vehicle id="AB_254" type="typeAB" route="AB" depart="815" color="1,0,0" />
    <vehicle id="AB_255" type="typeAB" route="AB" depart="824" color="1,0,0" />
    <vehicle id="AC_256" type="typeAB" route="AC" depart="828" color="0,1,0" />
    <vehicle id="AC_257" type="typeAB" route="AC" depart="832" color="0,1,0" />
    <vehicle id="CA_258" type="typeAB" route="CA" depart="840" />
    <vehicle id="AC_259" type="typeAB" route="AC" depart="841" color="0,1,0" />
    <vehicle id="AB_260" type="typeAB" route="AB" depart="842" color="1,0,0" />
    <vehicle id="CA_261" type="typeAB" route="CA" depart="842" />
    <vehicle id="BC_262" type="typeAB" route="BC" depart="844" />
    <vehicle id="AB_263" type="typeAB" route="AB" depart="847" color="1,0,0" />
    <vehicle id="AB_264" type="typeAB" route="AB" depart="851" color="1,0,0" />
    <vehicle id="BC_265" type="typeAB" route="BC" depart="852" />
    <vehicle id="AB_266" type="typeAB" route="AB" depart="853" color="1,0,0" />
    <vehicle id="BA_267" type="typeAB" route="BA" depart="855" />
    <vehicle id="BA_268" type="typeAB" route="BA" depart="858" />
    <vehicle id="BC_269" type="typeAB" route="BC" depart="858" />
    <vehicle id="BC_270" type="typeAB" route="BC" depart="859" />
    <vehicle id="AB_271" type="typeAB" route="AB" depart="860" color="1,0,0" />
    <vehicle id="AB_272" type="typeAB" route="AB" depart="861" color="1,0,0" />
    <vehicle id="AB_273" type="typeAB" route="AB" depart="862" color="1,0,0" />
    <vehicle id="AB_274" type="typeAB" route="AB" depart="865" color="1,0,0" />
    <vehicle id="AB_275" type="typeAB" route="AB" depart="870" color="1,0,0" />
    <vehicle id="BA_276" type="typeAB" route="BA" depart="874" />
    <vehicle id="BA_277" type="typeAB" route="BA" depart="877" />
    <vehicle id="AC_278" type="typeAB" route="AC" depart="878" color="0,1,0" />
    <vehicle id="BA_279" type="typeAB" route="BA" depart="885" />
    <vehicle id="CB_280" type="typeAB" route="CB" depart="887" />
    <vehicle id="BC_281" type="typeAB" route="BC" depart="894" />
    <vehicle id="CA_282" type="typeAB" route="CA" depart="895" />
    <vehicle id="BC_283" type="typeAB" route="BC" depart="896" />
    <vehicle id="AC_284" type="typeAB" route="AC" depart="897" color="0,1,0" />
    <vehicle id="BC_285" type="typeAB" route="BC" depart="902" />
    <vehicle id="AB_286" type="typeAB" route="AB" depart="904" color="1,0,0" />
    <vehicle id="CA_287" type="typeAB" route="CA" depart="904" />
    <vehicle id="AB_288" type="typeAB" route="AB" depart="912" color="1,0,0" />
    <vehicle id="AB_289" type="typeAB" route="AB" depart="917" color="1,0,0" />
    <vehicle id="AB_290" type="typeAB" route="AB" depart="918" color="1,0,0" />
    <vehicle id="CA_291" type="typeAB" route="CA" depart="922" />
    <vehicle id="BA_292" type="typeAB" route="BA" depart="925" />
    <vehicle id="AB_293" type="typeAB" route="AB" depart="926" color="1,0,0" />
    <vehicle id="CB_294" type="typeAB" route="CB" depart="930" />
    <vehicle id="CB_295" type="typeAB" route="CB" depart="932" />
    <vehicle id="AB_296" type="typeAB" route="AB" depart="938" color="1,0,0" />
    <vehicle id="AC_297" type="typeAB" route="AC" depart="940" color="0,1,0" />
    <vehicle id="BC_298" type="typeAB" route="BC" depart="942" />
    <vehicle id="BA_299" type="typeAB" route="BA" depart="947" />
    <vehicle id="AB_300" type="typeAB" route="AB" depart="949" color="1,0,0" />
    <vehicle id="AB_301" type="typeAB" route="AB" depart="950" color="1,0,0" />
    <vehicle id="BC_302" type="typeAB" route="BC" depart="953" />
    <vehicle id="AB_303" type="typeAB" route="AB" depart="956" color="1,0,0" />
    <vehicle id="BA_304" type="typeAB" route="BA" depart="957" />
    <vehicle id="AC_305" type="typeAB" route="AC" depart="964" color="0,1,0" />
    <vehicle id="BC_306" type="typeAB" route="BC" depart="967" />
    <vehicle id="AB_307" type="typeAB" route="AB" depart="969" color="1,0,0" />
    <vehicle id="CB_308" type="typeAB" route="CB" depart="969" />
    <vehicle id="BA_309" type="typeAB" route="BA" depart="970" />
    <vehicle id="CB_310" type="typeAB" route="CB" depart="977" />
    <vehicle id="AB_311" type="typeAB" route="AB" depart="978" color="1,0,0" />
    <vehicle id="AC_312" type="typeAB" route="AC" depart="980" color="0,1,0" />
    <vehicle id="BA_313" type="typeAB" route="BA" depart="981" />
    <vehicle id="CB_314" type="typeAB" route="CB" depart="985" />
    <vehicle id="BA_315" type="typeAB" route="BA" depart="988" />
    <vehicle id="AB_316" type="typeAB" route="AB" depart="992" color="1,0,0" />
    <vehicle id="AB_317" type="typeAB" route="AB" depart="993" color="1,0,0" />
    <vehicle id="AC_318" type="typeAB" route="AC" depart="994" color="0,1,0" />
    <vehicle id="AB_319" type="typeAB" route="AB" depart="998" color="1,0,0" />
    <vehicle id="CA_320" type="typeAB" route="CA" depart="998" />
    <vehicle id="BA_321" type="typeAB" route="BA" depart="1000" />
    <vehicle id="CA_322" type="typeAB" route="CA" depart="1005" />
    <vehicle id="AC_323" type="typeAB" route="AC" depart="1009" color="0,1,0" />
    <vehicle id="BA_324" type="typeAB" route="BA" depart="1009" />
    <vehicle id="AB_325" type="typeAB" route="AB" depart="1010" color="1,0,0" />
    <vehicle id="CA_326" type="typeAB" route="CA" depart="1018" />
    <vehicle id="AC_327" type="typeAB" route="AC" depart="1020" color="0,1,0" />
    <vehicle id="AC_328" type="typeAB" route="AC" depart="1021" color="0,1,0" />
    <vehicle id="BA_329" type="typeAB" route="BA" depart="1021" />
    <vehicle id="BC_330" type="typeAB" route="BC" depart="1022" />
    <vehicle id="BC_331" type="typeAB" route="BC" depart="1023" />
    <vehicle id="AC_332" type="typeAB" route="AC" depart="1031" color="0,1,0" />
    <vehicle id="AB_333" type="typeAB" route="AB" depart="1032" color="1,0,0" />
    <vehicle id="BA_334" type="typeAB" route="BA" depart="1035" />
    <vehicle id="AB_335" type="typeAB" route="AB" depart="1037" color="1,0,0" />
    <vehicle id="AB_336" type="typeAB" route="AB" depart="1038" color="1,0,0" />
    <vehicle id="CB_337" type="typeAB" route="CB" depart="1041" />
    <vehicle id="AB_338" type="typeAB" route="AB" depart="1043" color="1,0,0" />
    <vehicle id="BC_339" type="typeAB" route="BC" depart="1044" />
    <vehicle id="AC_340" type="typeAB" route="AC" depart="1050" color="0,1,0" />
    <vehicle id="AB_341" type="typeAB" route="AB" depart="1051" color="1,0,0" />
    <vehicle id="AB_342" type="typeAB" route="AB" depart="1056" color="1,0,0" />
    <vehicle id="AC_343" type="typeAB" route="AC" depart="1064" color="0,1,0" />
    <vehicle id="BA_344" type="typeAB" route="BA" depart="1064" />
    <vehicle id="BC_345" type="typeAB" route="BC" depart="1065" />
    <vehicle id="CA_346" type="typeAB" route="CA" depart="1069" />
    <vehicle id="CB_347" type="typeAB" route="CB" depart="1069" />
    <vehicle id="AC_348" type="typeAB" route="AC" depart="1073" color="0,1,0" />
    <vehicle id="AC_349" type="typeAB" route="AC" depart="1079" color="0,1,0" />
    <vehicle id="BA_350" type="typeAB" route="BA" depart="1079" />
    <vehicle id="BC_351" type="typeAB" route="BC" depart="1081" />
    <vehicle id="AB_352" type="typeAB" route="AB" depart="1083" color="1,0,0" />
    <vehicle id="CB_353" type="typeAB" route="CB" depart="1088" />
    <vehicle id="BC_354" type="typeAB" route="BC" depart="1090" />
    <vehicle id="BA_355" type="typeAB" route="BA" depart="1094" />
    <vehicle id="AB_356" type="typeAB" route="AB" depart="1099" color="1,0,0" />
    <vehicle id="AC_357" type="typeAB" route="AC" depart="1100" color="0,1,0" />
    <vehicle id="BA_358" type="typeAB" route="BA" depart="1100" />
    <vehicle id="AC_359" type="typeAB" route="AC" depart="1102" color="0,1,0" />
    <vehicle id="CA_360" type="typeAB" route="CA" depart="1108" />
    <vehicle id="CB_361" type="typeAB" route="CB" depart="1109" />
    <vehicle id="CB_362" type="typeAB" route="CB" depart="1111" />
    <vehicle id="AC_363" type="typeAB" route="AC" depart="1112" color="0,1,0" />
    <vehicle id="AB_364" type="typeAB" route="AB" depart="1119" color="1,0,0" />
    <vehicle id="AB_365" type="typeAB" route="AB" depart="1120" color="1,0,0" />
    <vehicle id="BA_366" type="typeAB" route="BA" depart="1124" />
    <vehicle id="CB_367" type="typeAB" route="CB" depart="1126" />
    <vehicle id="BC_368" type="typeAB" route="BC" depart="1128" />
    <vehicle id="BA_369" type="typeAB" route="BA" depart="1129" />
    <vehicle id="BA_370" type="typeAB" route="BA" depart="1134" />
    <vehicle id="CB_371" type="typeAB" route="CB" depart="1134" />
    <vehicle id="AC_372" type="typeAB" route="AC" depart="1137" color="0,1,0" />
    <vehicle id="BC_373" type="typeAB" route="BC" depart="1137" />
    <vehicle id="CB_374" type="typeAB" route="CB" depart="1137" />
    <vehicle id="AC_375" type="typeAB" route="AC" depart="1138" color="0,1,0" />
    <vehicle id="BC_376" type="typeAB" route="BC" depart="1141" />
    <vehicle id="BA_377" type="typeAB" route="BA" depart="1144" />
    <vehicle id="BA_378" type="typeAB" route="BA" depart="1146" />
    <vehicle id="CB_379" type="typeAB" route="CB" depart="1146" />
    <vehicle id="CA_380" type="typeAB" route="CA" depart="1147" />
    <vehicle id="AC_381" type="typeAB" route="AC" depart="1151" color="0,1,0" />
    <vehicle id="CA_382" type="typeAB" route="CA" depart="1152" />
    <vehicle id="CA_383" type="typeAB" route="CA" depart="1158" />
    <vehicle id="BA_384" type="typeAB" route="BA" depart="1161" />
    <vehicle id="CA_385" type="typeAB" route="CA" depart="1164" />
    <vehicle id="BA_386" type="typeAB" route="BA" depart="1173" />
    <vehicle id="BC_387" type="typeAB" route="BC" depart="1177" />
    <vehicle id="CB_388" type="typeAB" route="CB" depart="1177" />
    <vehicle id="BC_389" type="typeAB" route="BC" depart="1181" />
    <vehicle id="AB_390" type="typeAB" route="AB" depart="1183" color="1,0,0" />
    <vehicle id="BA_391" type="typeAB" route="BA" depart="1184" />
    <vehicle id="AB_392" type="typeAB" route="AB" depart="1185" color="1,0,0" />
    <vehicle id="AB_393" type="typeAB" route="AB" depart="1191" color="1,0,0" />
    <vehicle id="BA_394" type="typeAB" route="BA" depart="1192" />
    <vehicle id="AB_395" type="typeAB" route="AB" depart="1195" color="1,0,0" />
    <vehicle id="AB_396" type="typeAB" route="AB" depart="1201" color="1,0,0" />
    <vehicle id="BA_397" type="typeAB" route="BA" depart="1205" />
    <vehicle id="BC_398" type="typeAB" route="BC" depart="1205" />
    <vehicle id="AC_399" type="typeAB" route="AC" depart="1207" color="0,1,0" />
    <vehicle id="AC_400" type="typeAB" route="AC" depart="1208" color="0,1,0" />
    <vehicle id="AB_401" type="typeAB" route="AB" depart="1211" color="1,0,0" />
    <vehicle id="BC_402" type="typeAB" route="BC" depart="1211" />
    <vehicle id="AB_403" type="typeAB" route="AB" depart="1213" color="1,0,0" />
    <vehicle id="BA_404" type="typeAB" route="BA" depart="1214" />